 ****** HSPICE -- I-2013.12-SP1 64-BIT (Feb 25 2014) RHEL64 ******              
  Copyright (C) 2014 Synopsys, Inc. All Rights Reserved.                        
  Unpublished-rights reserved under US copyright laws.
  This program is protected by law and is subject to the
  terms and conditions of the license agreement from Synopsys.
  Use of this program is your acceptance to be bound by the
  license agreement. HSPICE is the trademark of Synopsys, Inc.
  Input File: project_circuit.sp                                                
  Command line options: -i project_circuit.sp -o project_circuit.lis
 lic:  
 lic: FLEXlm: v10.9.8 
 lic: USER:   2024_2_digital_15    HOSTNAME: VLSI-SYSTEM-WORKSTATION3 
 lic: HOSTID: 002564f8ee34         PID:      31124 
 lic: Using FLEXlm license file: 
 lic: 27020@itsoc2 
 lic: Checkout 1 hspice 
 lic: License/Maintenance for hspice will expire on 09-jul-2025/2023.12 
 lic: 8(in_use)/11(total) FLOATING license(s) on SERVER 27020@itsoc2 
 lic:   
 Init: read install configuration file: /opt/synopsys/hspice/I-2013.12-SP1/hspice/meta.cfg
 scientific notation:
 a=10**-18  f=10**-15  p=10**-12  n=10**-9  u=10**-6
 m=10**-3   k=10**3    x=10**6    g=10**9 
1****** HSPICE -- I-2013.12-SP1 64-BIT (Feb 25 2014) RHEL64 ******              
 ******  
 

  ******  circuit name directory
 circuit number to circuit name directory
   number circuitname                     definition         multiplier
        0 main circuit
        1 xi0.                            and16              1.00 
        2 xi16.                           nand2              1.00 
        3 xi15.                           nand2              1.00 
        4 xi14.                           nand2              1.00 
        5 xi13.                           nand2              1.00 
        6 xi12.                           nand2              1.00 
        7 xi11.                           nand2              1.00 
        8 xi10.                           nand2              1.00 
        9 xi9.                            nand2              1.00 
       10 xi8.                            nand2              1.00 
       11 xi5.                            nand2              1.00 
       12 xi1.                            nand2              1.00 
       13 xi4.                            nand2              1.00 
       14 xi3.                            nand2              1.00 
       15 xi2.                            nand2              1.00 
       16 xi6.                            nand2              1.00 
       17 xi7.                            nand2              1.00 
       18 xi17.                           mux16to1           1.00 
       19 xi35.                           inverter           1.00 
       20 xi34.                           inverter           1.00 
       21 xi33.                           inverter           1.00 
       22 xi32.                           inverter           1.00 
       23 xi31.                           inverter           1.00 
       24 xi30.                           inverter           1.00 
       25 xi29.                           inverter           1.00 
       26 xi28.                           inverter           1.00 
       27 xi27.                           inverter           1.00 
       28 xi26.                           inverter           1.00 
       29 xi25.                           inverter           1.00 
       30 xi24.                           inverter           1.00 
       31 xi22.                           inverter           1.00 
       32 xi23.                           inverter           1.00 
       33 xi20.                           inverter           1.00 
       34 xi19.                           inverter           1.00 
       35 xi0.xi6.                        nand2              1.00 
       36 xi0.xi5.                        nand2              1.00 
       37 xi0.xi7.                        nand2              1.00 
       38 xi0.xi4.                        nand2              1.00 
       39 xi0.xi13.                       nand2              1.00 
       40 xi0.xi3.                        nand2              1.00 
       41 xi0.xi2.                        nand2              1.00 
       42 xi0.xi1.                        nand2              1.00 
       43 xi0.xi0.                        nand2              1.00 
       44 xi0.xi12.                       nand2              1.00 
       45 xi0.xi8.                        nor2               1.00 
       46 xi0.xi14.                       nor2               1.00 
       47 xi0.xi11.                       nor2               1.00 
       48 xi0.xi10.                       nor2               1.00 
       49 xi0.xi9.                        nor2               1.00 
       50 xi17.xi24.                      nand3              1.00 
       51 xi17.xi22.                      nand3              1.00 
       52 xi17.xi21.                      nand3              1.00 
       53 xi17.xi20.                      nand3              1.00 
       54 xi17.xi15.                      nand3              1.00 
       55 xi17.xi14.                      nand3              1.00 
       56 xi17.xi13.                      nand3              1.00 
       57 xi17.xi12.                      nand3              1.00 
       58 xi17.xi11.                      nand3              1.00 
       59 xi17.xi10.                      nand3              1.00 
       60 xi17.xi9.                       nand3              1.00 
       61 xi17.xi8.                       nand3              1.00 
       62 xi17.xi7.                       nand3              1.00 
       63 xi17.xi6.                       nand3              1.00 
       64 xi17.xi5.                       nand3              1.00 
       65 xi17.xi4.                       nand3              1.00 
       66 xi17.xi3.                       nand3              1.00 
       67 xi17.xi2.                       nand3              1.00 
       68 xi17.xi1.                       nand3              1.00 
       69 xi17.xi0.                       nand3              1.00 
       70 xi17.xi23.                      nand4              1.00 
       71 xi17.xi19.                      nand4              1.00 
       72 xi17.xi18.                      nand4              1.00 
       73 xi17.xi17.                      nand4              1.00 
       74 xi17.xi16.                      nand4              1.00 
       75 xi17.xi32.                      inverter           1.00 
       76 xi17.xi31.                      inverter           1.00 
       77 xi17.xi27.                      inverter           1.00 
       78 xi17.xi28.                      inverter           1.00 


 circuit parameter definitions
  parameter          =  value 

     0:vddx                                                    =   1.1000       
     0:vssx                                                    =   0.           
     2:n_width                                                 =   1.7400u      
     2:p_width                                                 =   1.7500u      
    19:n_width                                                 =   2.5400u      
    19:p_width                                                 =   5.0700u      
    35:n_width                                                 =   2.2000u      
    35:p_width                                                 =   2.2000u      
    39:n_width                                                 =   7.8400u      
    39:p_width                                                 =   7.8300u      
    45:n_width                                                 =   1.9400u      
    45:p_width                                                 =   7.7800u      
    46:n_width                                                 =   6.9600u      
    46:p_width                                                 =  27.8600u      
    50:n_width                                                 =  29.4400u      
    50:p_width                                                 =  19.6200u      
    54:n_width                                                 =  12.3400u      
    54:p_width                                                 =   8.2300u      
    70:n_width                                                 =  54.7400u      
    70:p_width                                                 =  27.3700u      
    71:n_width                                                 =  22.9400u      
    71:p_width                                                 =  11.4800u      
    75:n_width                                                 =   1.1000u      
    75:p_width                                                 =   2.2000u      




 constants  - tnom         kt           vt           gapsi        ni
            298.15000    4.1163e-21    25.69184m     1.11562    1.2565e+16 
1****** HSPICE -- I-2013.12-SP1 64-BIT (Feb 25 2014) RHEL64 ******              
 ******  
 

  ******  mos   model parameters tnom=  25.000 temp=  25.000 *****
 Model Name: nmos  
 BSIM4 Model (Level 54)
    MOBMOD = 0
    BINUNIT = 1
    PARAMCHK = 1
    CAPMOD = 2
    DIOMOD = 1
    RDSMOD = 0
    TRNQSMOD = 0
    ACNQSMOD = 0
    RBODYMOD = 1
    RGATEMOD = 1
    PERMOD = 1
    GEOMOD = 1
    RGEOMOD = 0
    FNOIMOD = 1
    TNOIMOD = 0
    IGCMOD = 1
    IGBMOD = 1
    STIMOD = 0
    VERSION =      4 
    TOXREF = 1.8e-09 
    TOXE = 1.8e-09 
    TOXP = 1.5e-09 
    TOXM = 1.8e-09 
    DTOX =  3e-10 
    EPSROX =    3.9 
    CDSC =      0 
    CDSCB =      0 
    CDSCD =      0 
    CIT =      0 
    NFACTOR =    1.6 
    XJ = 1.4e-08 
    VSAT = 1.3e+05 
    A0 =      1 
    AGS =      0 
    A1 =      0 
    A2 =      1 
    AT = 3.3e+04 
    KETA =   0.04 
    NSUB =  6e+16 
    NDEP = 3.24e+18 
    NSD =  2e+20 
    NGATE =  1e+23 
    GAMMA1 =      0 
    GAMMA2 =      0 
    VBX =      0 
    VBM =     -3 
    XT = 1.55e-07 
    K1 =    0.4 
    KT1 =  -0.11 
    KT1L =      0 
    KT2 =  0.022 
    K2 =      0 
    K3 =      0 
    K3B =      0 
    LPE0 =      0 
    LPEB =      0 
    DVTP0 =  1e-10 
    DVTP1 =    0.1 
    W0 = 2.5e-06 
    DVT0 =      1 
    DVT1 =      2 
    DVT2 =      0 
    DVT0W =      0 
    DVT1W =      0 
    DVT2W =      0 
    DROUT =    0.5 
    DSUB =    0.1 
    VTH0 = 0.6226 
    EU =   1.67 
    UA =  6e-10 
    UA1 = 4.31e-09 
    UB = 1.2e-18 
    UB1 = 7.61e-18 
    UC =      0 
    UC1 = -5.6e-11 
    U0 =  0.049 
    UTE =   -1.5 
    VOFF =  -0.13 
    VOFFL =      0 
    MINV =   0.05 
    FPROUT =    0.2 
    PDITS =   0.08 
    PDITSD =   0.23 
    PDITSL = 2.3e+06 
    DELTA =   0.01 
    RDSW =    210 
    RDSWMIN =      0 
    RDWMIN =      0 
    RSWMIN =      0 
    RDW =     80 
    RSW =     80 
    PRWG =      0 
    PRWB =      0 
    PRT =      0 
    ETA0 = 0.0125 
    ETAB =      0 
    PCLM =   0.02 
    PDIBLC1 =  0.001 
    PDIBLC2 =  0.001 
    PDIBLCB = -0.005 
    PSCBE1 = 8.14e+08 
    PSCBE2 =  1e-07 
    PVAG =  1e-20 
    WR =      1 
    DWG =      0 
    DWB =      0 
    XW =      0 
    XWREF =      0 
    XL =      0 
    XLREF =      0 
    B0 =      0 
    B1 =      0 
    ALPHA0 =  0.074 
    ALPHA1 =  0.005 
    AGIDL = 0.0002 
    BGIDL = 2.1e+09 
    CGIDL = 0.0002 
    PHIN =      0 
    EGIDL =    0.8 
    AIGC = 0.01521 
    BIGC = 0.002743 
    CIGC =  0.002 
    AIGSD = 0.01521 
    BIGSD = 0.002743 
    CIGSD =  0.002 
    AIGBACC =  0.012 
    BIGBACC = 0.0028 
    CIGBACC =  0.002 
    AIGBINV =  0.014 
    BIGBINV =  0.004 
    CIGBINV =  0.004 
    NIGC =      1 
    NIGBINV =      3 
    NIGBACC =      1 
    NTOX =      1 
    EIGBINV =    1.1 
    PIGCD =      1 
    POXEDGE =      1 
    XRCRG1 =     12 
    TNOIA =    1.5 
    TNOIB =    3.5 
    NTNOI =      1 
    XRCRG2 =      5 
    BETA0 =     30 
    IJTHDFWD =   0.01 
    IJTHSFWD =   0.01 
    IJTHDREV =  0.001 
    IJTHSREV =  0.001 
    XJBVD =      1 
    XJBVS =      1 
    BVD =     10 
    BVS =     10 
    VFB =  -0.55 
    GBMIN =  1e-10 
    RBDB =     15 
    RBPB =      5 
    RBSB =     15 
    RBPS =     15 
    RBPD =     15 
    CGSL = 2.653e-10 
    CGDL = 2.653e-10 
    CKAPPAS =   0.03 
    CKAPPAD =   0.03 
    CF = 1.189e-10 
    CLC =  1e-07 
    CLE =    0.6 
    DWC =  5e-09 
    DLC =      0 
    DLCIG =      0 
    DWJ =      0 
    VFBCV =     -1 
    ACDE =      1 
    MOIN =     15 
    NOFF =    0.9 
    VOFFCV =   0.02 
    DMCG =      0 
    DMCI =      0 
    DMDG =      0 
    DMCGT =      0 
    XGW =      0 
    XGL =      0 
    RSHG =    0.4 
    NGCON =      1 
    TCJ =  0.001 
    TPB =  0.005 
    TCJSW =  0.001 
    TPBSW =  0.005 
    TCJSWG =  0.001 
    TPBSWG =  0.005 
    SK0 =      0 
    SK1 =      0 
    SK2 =      0 
    SL =  2e-06 
    SW =  2e-06 
    K =      0 
    TNOM =  300.1 
    CGSO = 1.1e-10 
    CGDO = 1.1e-10 
    CGBO = 2.56e-11 
    XPART =      0 
    RSH =      5 
    JSS = 0.0001 
    JSWS =  1e-11 
    JSWGS =  1e-10 
    PBS =      1 
    MJS =    0.5 
    PBSWS =      1 
    MJSWS =   0.33 
    CJS = 0.0005 
    CJSWS =  5e-10 
    NJS =      1 
    PBSWGS =      1 
    MJSWGS =   0.33 
    CJSWGS =  3e-10 
    XTIS =      3 
    JSD = 0.0001 
    JSWD =  1e-11 
    JSWGD =  1e-10 
    PBD =      1 
    MJD =    0.5 
    PBSWD =      1 
    MJSWD =   0.33 
    CJD = 0.0005 
    CJSWD =  5e-10 
    NJD =      1 
    PBSWGD =      1 
    MJSWGD =   0.33 
    CJSWGD =  5e-10 
    XTID =      3 
    LMLT =      1 
    WMLT =      1 
    LINT =      0 
    LL =      0 
    LLC =      0 
    LLN =      1 
    LW =      0 
    LWC =      0 
    LWN =      1 
    LWL =      0 
    LWLC =      0 
    LMIN =      0 
    LMAX =      1 
    WINT =  5e-09 
    WL =      0 
    WLC =      0 
    WLN =      1 
    WW =      0 
    WWC =      0 
    WWN =      1 
    WWL =      0 
    WWLC =      0 
    WMIN =      0 
    WMAX =      1 
    NOIA = 6.25e+41 
    NOIB = 3.125e+26 
    NOIC = 8.75e+09 
    EM = 4.1e+07 
    EF =      1 
    AF =      1 
    KF =      0 
    TRS =      0 
    TRD =      0 
 Model Name: pmos  
 BSIM4 Model (Level 54)
    MOBMOD = 0
    BINUNIT = 1
    PARAMCHK = 1
    CAPMOD = 2
    DIOMOD = 1
    RDSMOD = 0
    TRNQSMOD = 0
    ACNQSMOD = 0
    RBODYMOD = 1
    RGATEMOD = 1
    PERMOD = 1
    GEOMOD = 1
    RGEOMOD = 0
    FNOIMOD = 1
    TNOIMOD = 0
    IGCMOD = 1
    IGBMOD = 1
    STIMOD = 0
    VERSION =      4 
    TOXREF = 1.82e-09 
    TOXE = 1.82e-09 
    TOXP = 1.5e-09 
    TOXM = 1.82e-09 
    DTOX = 3.2e-10 
    EPSROX =    3.9 
    CDSC =      0 
    CDSCB =      0 
    CDSCD =      0 
    CIT =      0 
    NFACTOR =    1.8 
    XJ = 1.4e-08 
    VSAT =  9e+04 
    A0 =      1 
    AGS =  1e-20 
    A1 =      0 
    A2 =      1 
    AT = 3.3e+04 
    KETA = -0.047 
    NSUB =  6e+16 
    NDEP = 2.44e+18 
    NSD =  2e+20 
    NGATE =  1e+23 
    GAMMA1 =      0 
    GAMMA2 =      0 
    VBX =      0 
    VBM =     -3 
    XT = 1.55e-07 
    K1 =    0.4 
    KT1 =  -0.11 
    KT1L =      0 
    KT2 =  0.022 
    K2 =  -0.01 
    K3 =      0 
    K3B =      0 
    LPE0 =      0 
    LPEB =      0 
    DVTP0 =  1e-11 
    DVTP1 =   0.05 
    W0 = 2.5e-06 
    DVT0 =      1 
    DVT1 =      2 
    DVT2 = -0.032 
    DVT0W =      0 
    DVT1W =      0 
    DVT2W =      0 
    DROUT =   0.56 
    DSUB =    0.1 
    VTH0 = -0.587 
    EU =      1 
    UA =  2e-09 
    UA1 = 4.31e-09 
    UB =  5e-19 
    UB1 = 7.61e-18 
    UC =      0 
    UC1 = -5.6e-11 
    U0 =  0.021 
    UTE =   -1.5 
    VOFF = -0.126 
    VOFFL =      0 
    MINV =   0.05 
    FPROUT =    0.2 
    PDITS =   0.08 
    PDITSD =   0.23 
    PDITSL = 2.3e+06 
    DELTA =   0.01 
    RDSW =    250 
    RDSWMIN =      0 
    RDWMIN =      0 
    RSWMIN =      0 
    RDW =     75 
    RSW =     75 
    PRWG =      0 
    PRWB =      0 
    PRT =      0 
    ETA0 = 0.0125 
    ETAB =      0 
    PCLM =   0.12 
    PDIBLC1 =  0.001 
    PDIBLC2 =  0.001 
    PDIBLCB = 3.4e-08 
    PSCBE1 = 8.14e+08 
    PSCBE2 = 9.58e-07 
    PVAG =  1e-20 
    WR =      1 
    DWG =      0 
    DWB =      0 
    XW =      0 
    XWREF =      0 
    XL =      0 
    XLREF =      0 
    B0 =      0 
    B1 =      0 
    ALPHA0 =  0.074 
    ALPHA1 =  0.005 
    AGIDL = 0.0002 
    BGIDL = 2.1e+09 
    CGIDL = 0.0002 
    PHIN =      0 
    EGIDL =    0.8 
    AIGC = 0.0097 
    BIGC = 0.00125 
    CIGC = 0.0008 
    AIGSD = 0.0097 
    BIGSD = 0.00125 
    CIGSD = 0.0008 
    AIGBACC =  0.012 
    BIGBACC = 0.0028 
    CIGBACC =  0.002 
    AIGBINV =  0.014 
    BIGBINV =  0.004 
    CIGBINV =  0.004 
    NIGC =      1 
    NIGBINV =      3 
    NIGBACC =      1 
    NTOX =      1 
    EIGBINV =    1.1 
    PIGCD =      1 
    POXEDGE =      1 
    XRCRG1 =     12 
    TNOIA =    1.5 
    TNOIB =    3.5 
    NTNOI =      1 
    XRCRG2 =      5 
    BETA0 =     30 
    IJTHDFWD =   0.01 
    IJTHSFWD =   0.01 
    IJTHDREV =  0.001 
    IJTHSREV =  0.001 
    XJBVD =      1 
    XJBVS =      1 
    BVD =     10 
    BVS =     10 
    VFB =   0.55 
    GBMIN =  1e-10 
    RBDB =     15 
    RBPB =      5 
    RBSB =     15 
    RBPS =     15 
    RBPD =     15 
    CGSL = 2.653e-10 
    CGDL = 2.653e-10 
    CKAPPAS =   0.03 
    CKAPPAD =   0.03 
    CF = 1.186e-10 
    CLC =  1e-07 
    CLE =    0.6 
    DWC =  5e-09 
    DLC =      0 
    DLCIG =      0 
    DWJ =      0 
    VFBCV =     -1 
    ACDE =      1 
    MOIN =     15 
    NOFF =    0.9 
    VOFFCV =   0.02 
    DMCG =      0 
    DMCI =      0 
    DMDG =      0 
    DMCGT =      0 
    XGW =      0 
    XGL =      0 
    RSHG =    0.4 
    NGCON =      1 
    TCJ =  0.001 
    TPB =  0.005 
    TCJSW =  0.001 
    TPBSW =  0.005 
    TCJSWG =  0.001 
    TPBSWG =  0.005 
    SK0 =      0 
    SK1 =      0 
    SK2 =      0 
    SL =  2e-06 
    SW =  2e-06 
    K =      0 
    TNOM =  300.1 
    CGSO = 1.1e-10 
    CGDO = 1.1e-10 
    CGBO = 2.56e-11 
    XPART =      0 
    RSH =      5 
    JSS = 0.0001 
    JSWS =  1e-11 
    JSWGS =  1e-10 
    PBS =      1 
    MJS =    0.5 
    PBSWS =      1 
    MJSWS =   0.33 
    CJS = 0.0005 
    CJSWS =  5e-10 
    NJS =      1 
    PBSWGS =      1 
    MJSWGS =   0.33 
    CJSWGS =  3e-10 
    XTIS =      3 
    JSD = 0.0001 
    JSWD =  1e-11 
    JSWGD =  1e-10 
    PBD =      1 
    MJD =    0.5 
    PBSWD =      1 
    MJSWD =   0.33 
    CJD = 0.0005 
    CJSWD =  5e-10 
    NJD =      1 
    PBSWGD =      1 
    MJSWGD =   0.33 
    CJSWGD =  5e-10 
    XTID =      3 
    LMLT =      1 
    WMLT =      1 
    LINT =      0 
    LL =      0 
    LLC =      0 
    LLN =      1 
    LW =      0 
    LWC =      0 
    LWN =      1 
    LWL =      0 
    LWLC =      0 
    LMIN =      0 
    LMAX =      1 
    WINT =  5e-09 
    WL =      0 
    WLC =      0 
    WLN =      1 
    WW =      0 
    WWC =      0 
    WWN =      1 
    WWL =      0 
    WWLC =      0 
    WMIN =      0 
    WMAX =      1 
    NOIA = 6.188e+40 
    NOIB = 1.5e+25 
    NOIC = 8.75e+09 
    EM = 4.1e+07 
    EF =      1 
    AF =      1 
    KF =      0 
    TRS =      0 
    TRD =      0 
  **info** (project_circuit.sp:39) DC voltage reset to initial transient source value              in source        0:vin30               new dc=  0.0000D+00
 **warning**(nmos:mm1)Warning:  Acde = 0.280299 may be too small in BSIM4 model with w=1.74e-06 l=4.5e-08.
1****** HSPICE -- I-2013.12-SP1 64-BIT (Feb 25 2014) RHEL64 ******              
 ******  
 

  ******  circuit element summary tnom=  25.000 temp=  25.000 *****


 **** capacitors
  
  
                             
 element name        0:cc0   
 node1               0:out   
 node2               0:vss   
 model                       
 cap eff           100.0000f 
 tc1                 0.      
 tc2                 0.      
 scale               1.0000  
 ic                  0.      
 m                   1.0000  
 w                   0.      
 l                   0.      
 temp               25.0000  


 **** independent sources

     name         node1        node2      dc volt    ac mag    ac phase    type
  v1  vdd               0                    1.1000     0.         0.      dc   
  v2  vss               0                    0.         0.         0.      dc   
  vin  a0                0                    0.         0.         0.      dc   
  vin1  a1                0                    1.1000     0.         0.      dc   
  vin10  a10               0                    0.         0.         0.      dc   
  vin11  a11               0                    0.         0.         0.      dc   
  vin12  a12               0                    0.         0.         0.      dc   
  vin13  a13               0                    0.         0.         0.      dc   
  vin14  a14               0                    0.         0.         0.      dc   
  vin15  a15               0                    1.1000     0.         0.      dc   
  vin16  c0                0                    1.1000     0.         0.      dc   
  vin17  c1                0                    1.1000     0.         0.      dc   
  vin18  c2                0                    1.1000     0.         0.      dc   
  vin19  c3                0                    1.1000     0.         0.      dc   
  vin2  a2                0                    1.1000     0.         0.      dc   
  vin20  c4                0                    1.1000     0.         0.      dc   
  vin21  c5                0                    1.1000     0.         0.      dc   
  vin22  c6                0                    1.1000     0.         0.      dc   
  vin23  c7                0                    1.1000     0.         0.      dc   
  vin24  c8                0                    1.1000     0.         0.      dc   
  vin25  c9                0                    1.1000     0.         0.      dc   
  vin26  c10               0                    1.1000     0.         0.      dc   
  vin27  c11               0                    1.1000     0.         0.      dc   
  vin28  c12               0                    1.1000     0.         0.      dc   
  vin29  c13               0                    1.1000     0.         0.      dc   
  vin3  a3                0                    1.1000     0.         0.      dc   
  vin30  c14               0                    0.         0.         0.      pulse
             initial value     0.     
             pulsed value.     1.1000 
             delay time...     1.0000n
             risetime.....   100.0000p
             falltime.....   100.0000p
             width........   500.0000p
             period.......     1.0000n

  vin31  c15               0                    1.1000     0.         0.      dc   
  vin32  s0                0                    1.1000     0.         0.      dc   
  vin33  s1                0                    1.1000     0.         0.      dc   
  vin34  s2                0                    1.1000     0.         0.      dc   
  vin35  s3                0                    1.1000     0.         0.      dc   
  vin4  a4                0                    1.1000     0.         0.      dc   
  vin5  a5                0                    1.1000     0.         0.      dc   
  vin6  a6                0                    1.1000     0.         0.      dc   
  vin7  a7                0                    1.1000     0.         0.      dc   
  vin8  a8                0                    0.         0.         0.      dc   
  vin9  a9                0                    0.         0.         0.      dc   


 **** mosfets


 **** BSIM4 Model (Level 54)
  
  
                                                              
 element name        2:mm1      2:mm0      2:mm3      2:mm2   
 drain               2:net7     0:net44    0:net44    0:net44 
 gate                0:cout     0:a13      0:cout     0:a13   
 source              0:vss      2:net7     0:vdd      0:vdd   
 bulk                0:vss      0:vss      0:vdd      0:vdd   
 model               0:nmos     0:nmos     0:pmos     0:pmos  
 w eff               1.7300u    1.7300u    1.7400u    1.7400u 
 l eff              45.0000n   45.0000n   45.0000n   45.0000n 
 rd eff              0.         0.         0.         0.      
 rs eff              0.         0.         0.         0.      
 cdsat              10.0000f   10.0000f   10.0000f   10.0000f 
 cssat             137.5983a  137.5983a  138.3891a  138.3891a 
 capbd             868.2600a  868.2600a  873.2500a  873.2500a 
 capbs               1.3892f    1.3892f    1.3972f    1.3972f 
 temp               25.0000    25.0000    25.0000    25.0000  
 aic                                                          
 nf                  1.0000     1.0000     1.0000     1.0000  
 min                 0.         0.         0.         0.      
 rbdb               15.0000    15.0000    15.0000    15.0000  
 rbsb               15.0000    15.0000    15.0000    15.0000  
 rbpb                5.0000     5.0000     5.0000     5.0000  
 rbps               15.0000    15.0000    15.0000    15.0000  
 rbpd               15.0000    15.0000    15.0000    15.0000  
 trnqsmod            0.         0.         0.         0.      
 acnqsmod            0.         0.         0.         0.      
 rbodymod            1.0000     1.0000     1.0000     1.0000  
 rgatemod            1.0000     1.0000     1.0000     1.0000  
 geomod              1.0000     1.0000     1.0000     1.0000  
 rgeomod             0.         0.         0.         0.      
 delvto              0.         0.         0.         0.      
 mulu0               1.0000     1.0000     1.0000     1.0000  
 delk1               0.         0.         0.         0.      
 delnfct             0.         0.         0.         0.      
 deltox              0.         0.         0.         0.      
 sa                  0.         0.         0.         0.      
 sb                  0.         0.         0.         0.      
 sd                  0.         0.         0.         0.      
 saeff               0.         0.         0.         0.      
 sbeff               0.         0.         0.         0.      
 m                   1.0000     1.0000     1.0000     1.0000  
 w drawn             1.7400u    1.7400u    1.7500u    1.7500u 
 l drawn            45.0000n   45.0000n   45.0000n   45.0000n 
  
  
                                                              
 element name        3:mm1      3:mm0      3:mm3      3:mm2   
 drain               3:net7     0:net43    0:net43    0:net43 
 gate                0:cout     0:a12      0:cout     0:a12   
 source              0:vss      3:net7     0:vdd      0:vdd   
 bulk                0:vss      0:vss      0:vdd      0:vdd   
 model               0:nmos     0:nmos     0:pmos     0:pmos  
 w eff               1.7300u    1.7300u    1.7400u    1.7400u 
 l eff              45.0000n   45.0000n   45.0000n   45.0000n 
 rd eff              0.         0.         0.         0.      
 rs eff              0.         0.         0.         0.      
 cdsat              10.0000f   10.0000f   10.0000f   10.0000f 
 cssat             137.5983a  137.5983a  138.3891a  138.3891a 
 capbd             868.2600a  868.2600a  873.2500a  873.2500a 
 capbs               1.3892f    1.3892f    1.3972f    1.3972f 
 temp               25.0000    25.0000    25.0000    25.0000  
 aic                                                          
 nf                  1.0000     1.0000     1.0000     1.0000  
 min                 0.         0.         0.         0.      
 rbdb               15.0000    15.0000    15.0000    15.0000  
 rbsb               15.0000    15.0000    15.0000    15.0000  
 rbpb                5.0000     5.0000     5.0000     5.0000  
 rbps               15.0000    15.0000    15.0000    15.0000  
 rbpd               15.0000    15.0000    15.0000    15.0000  
 trnqsmod            0.         0.         0.         0.      
 acnqsmod            0.         0.         0.         0.      
 rbodymod            1.0000     1.0000     1.0000     1.0000  
 rgatemod            1.0000     1.0000     1.0000     1.0000  
 geomod              1.0000     1.0000     1.0000     1.0000  
 rgeomod             0.         0.         0.         0.      
 delvto              0.         0.         0.         0.      
 mulu0               1.0000     1.0000     1.0000     1.0000  
 delk1               0.         0.         0.         0.      
 delnfct             0.         0.         0.         0.      
 deltox              0.         0.         0.         0.      
 sa                  0.         0.         0.         0.      
 sb                  0.         0.         0.         0.      
 sd                  0.         0.         0.         0.      
 saeff               0.         0.         0.         0.      
 sbeff               0.         0.         0.         0.      
 m                   1.0000     1.0000     1.0000     1.0000  
 w drawn             1.7400u    1.7400u    1.7500u    1.7500u 
 l drawn            45.0000n   45.0000n   45.0000n   45.0000n 
  
  
                                                              
 element name        4:mm1      4:mm0      4:mm3      4:mm2   
 drain               4:net7     0:net45    0:net45    0:net45 
 gate                0:cout     0:a9       0:cout     0:a9    
 source              0:vss      4:net7     0:vdd      0:vdd   
 bulk                0:vss      0:vss      0:vdd      0:vdd   
 model               0:nmos     0:nmos     0:pmos     0:pmos  
 w eff               1.7300u    1.7300u    1.7400u    1.7400u 
 l eff              45.0000n   45.0000n   45.0000n   45.0000n 
 rd eff              0.         0.         0.         0.      
 rs eff              0.         0.         0.         0.      
 cdsat              10.0000f   10.0000f   10.0000f   10.0000f 
 cssat             137.5983a  137.5983a  138.3891a  138.3891a 
 capbd             868.2600a  868.2600a  873.2500a  873.2500a 
 capbs               1.3892f    1.3892f    1.3972f    1.3972f 
 temp               25.0000    25.0000    25.0000    25.0000  
 aic                                                          
 nf                  1.0000     1.0000     1.0000     1.0000  
 min                 0.         0.         0.         0.      
 rbdb               15.0000    15.0000    15.0000    15.0000  
 rbsb               15.0000    15.0000    15.0000    15.0000  
 rbpb                5.0000     5.0000     5.0000     5.0000  
 rbps               15.0000    15.0000    15.0000    15.0000  
 rbpd               15.0000    15.0000    15.0000    15.0000  
 trnqsmod            0.         0.         0.         0.      
 acnqsmod            0.         0.         0.         0.      
 rbodymod            1.0000     1.0000     1.0000     1.0000  
 rgatemod            1.0000     1.0000     1.0000     1.0000  
 geomod              1.0000     1.0000     1.0000     1.0000  
 rgeomod             0.         0.         0.         0.      
 delvto              0.         0.         0.         0.      
 mulu0               1.0000     1.0000     1.0000     1.0000  
 delk1               0.         0.         0.         0.      
 delnfct             0.         0.         0.         0.      
 deltox              0.         0.         0.         0.      
 sa                  0.         0.         0.         0.      
 sb                  0.         0.         0.         0.      
 sd                  0.         0.         0.         0.      
 saeff               0.         0.         0.         0.      
 sbeff               0.         0.         0.         0.      
 m                   1.0000     1.0000     1.0000     1.0000  
 w drawn             1.7400u    1.7400u    1.7500u    1.7500u 
 l drawn            45.0000n   45.0000n   45.0000n   45.0000n 
  
  
                                                              
 element name        5:mm1      5:mm0      5:mm3      5:mm2   
 drain               5:net7     0:net47    0:net47    0:net47 
 gate                0:cout     0:a10      0:cout     0:a10   
 source              0:vss      5:net7     0:vdd      0:vdd   
 bulk                0:vss      0:vss      0:vdd      0:vdd   
 model               0:nmos     0:nmos     0:pmos     0:pmos  
 w eff               1.7300u    1.7300u    1.7400u    1.7400u 
 l eff              45.0000n   45.0000n   45.0000n   45.0000n 
 rd eff              0.         0.         0.         0.      
 rs eff              0.         0.         0.         0.      
 cdsat              10.0000f   10.0000f   10.0000f   10.0000f 
 cssat             137.5983a  137.5983a  138.3891a  138.3891a 
 capbd             868.2600a  868.2600a  873.2500a  873.2500a 
 capbs               1.3892f    1.3892f    1.3972f    1.3972f 
 temp               25.0000    25.0000    25.0000    25.0000  
 aic                                                          
 nf                  1.0000     1.0000     1.0000     1.0000  
 min                 0.         0.         0.         0.      
 rbdb               15.0000    15.0000    15.0000    15.0000  
 rbsb               15.0000    15.0000    15.0000    15.0000  
 rbpb                5.0000     5.0000     5.0000     5.0000  
 rbps               15.0000    15.0000    15.0000    15.0000  
 rbpd               15.0000    15.0000    15.0000    15.0000  
 trnqsmod            0.         0.         0.         0.      
 acnqsmod            0.         0.         0.         0.      
 rbodymod            1.0000     1.0000     1.0000     1.0000  
 rgatemod            1.0000     1.0000     1.0000     1.0000  
 geomod              1.0000     1.0000     1.0000     1.0000  
 rgeomod             0.         0.         0.         0.      
 delvto              0.         0.         0.         0.      
 mulu0               1.0000     1.0000     1.0000     1.0000  
 delk1               0.         0.         0.         0.      
 delnfct             0.         0.         0.         0.      
 deltox              0.         0.         0.         0.      
 sa                  0.         0.         0.         0.      
 sb                  0.         0.         0.         0.      
 sd                  0.         0.         0.         0.      
 saeff               0.         0.         0.         0.      
 sbeff               0.         0.         0.         0.      
 m                   1.0000     1.0000     1.0000     1.0000  
 w drawn             1.7400u    1.7400u    1.7500u    1.7500u 
 l drawn            45.0000n   45.0000n   45.0000n   45.0000n 
  
  
                                                              
 element name        6:mm1      6:mm0      6:mm3      6:mm2   
 drain               6:net7     0:net48    0:net48    0:net48 
 gate                0:cout     0:a11      0:cout     0:a11   
 source              0:vss      6:net7     0:vdd      0:vdd   
 bulk                0:vss      0:vss      0:vdd      0:vdd   
 model               0:nmos     0:nmos     0:pmos     0:pmos  
 w eff               1.7300u    1.7300u    1.7400u    1.7400u 
 l eff              45.0000n   45.0000n   45.0000n   45.0000n 
 rd eff              0.         0.         0.         0.      
 rs eff              0.         0.         0.         0.      
 cdsat              10.0000f   10.0000f   10.0000f   10.0000f 
 cssat             137.5983a  137.5983a  138.3891a  138.3891a 
 capbd             868.2600a  868.2600a  873.2500a  873.2500a 
 capbs               1.3892f    1.3892f    1.3972f    1.3972f 
 temp               25.0000    25.0000    25.0000    25.0000  
 aic                                                          
 nf                  1.0000     1.0000     1.0000     1.0000  
 min                 0.         0.         0.         0.      
 rbdb               15.0000    15.0000    15.0000    15.0000  
 rbsb               15.0000    15.0000    15.0000    15.0000  
 rbpb                5.0000     5.0000     5.0000     5.0000  
 rbps               15.0000    15.0000    15.0000    15.0000  
 rbpd               15.0000    15.0000    15.0000    15.0000  
 trnqsmod            0.         0.         0.         0.      
 acnqsmod            0.         0.         0.         0.      
 rbodymod            1.0000     1.0000     1.0000     1.0000  
 rgatemod            1.0000     1.0000     1.0000     1.0000  
 geomod              1.0000     1.0000     1.0000     1.0000  
 rgeomod             0.         0.         0.         0.      
 delvto              0.         0.         0.         0.      
 mulu0               1.0000     1.0000     1.0000     1.0000  
 delk1               0.         0.         0.         0.      
 delnfct             0.         0.         0.         0.      
 deltox              0.         0.         0.         0.      
 sa                  0.         0.         0.         0.      
 sb                  0.         0.         0.         0.      
 sd                  0.         0.         0.         0.      
 saeff               0.         0.         0.         0.      
 sbeff               0.         0.         0.         0.      
 m                   1.0000     1.0000     1.0000     1.0000  
 w drawn             1.7400u    1.7400u    1.7500u    1.7500u 
 l drawn            45.0000n   45.0000n   45.0000n   45.0000n 
  
  
                                                              
 element name        7:mm1      7:mm0      7:mm3      7:mm2   
 drain               7:net7     0:net46    0:net46    0:net46 
 gate                0:cout     0:a8       0:cout     0:a8    
 source              0:vss      7:net7     0:vdd      0:vdd   
 bulk                0:vss      0:vss      0:vdd      0:vdd   
 model               0:nmos     0:nmos     0:pmos     0:pmos  
 w eff               1.7300u    1.7300u    1.7400u    1.7400u 
 l eff              45.0000n   45.0000n   45.0000n   45.0000n 
 rd eff              0.         0.         0.         0.      
 rs eff              0.         0.         0.         0.      
 cdsat              10.0000f   10.0000f   10.0000f   10.0000f 
 cssat             137.5983a  137.5983a  138.3891a  138.3891a 
 capbd             868.2600a  868.2600a  873.2500a  873.2500a 
 capbs               1.3892f    1.3892f    1.3972f    1.3972f 
 temp               25.0000    25.0000    25.0000    25.0000  
 aic                                                          
 nf                  1.0000     1.0000     1.0000     1.0000  
 min                 0.         0.         0.         0.      
 rbdb               15.0000    15.0000    15.0000    15.0000  
 rbsb               15.0000    15.0000    15.0000    15.0000  
 rbpb                5.0000     5.0000     5.0000     5.0000  
 rbps               15.0000    15.0000    15.0000    15.0000  
 rbpd               15.0000    15.0000    15.0000    15.0000  
 trnqsmod            0.         0.         0.         0.      
 acnqsmod            0.         0.         0.         0.      
 rbodymod            1.0000     1.0000     1.0000     1.0000  
 rgatemod            1.0000     1.0000     1.0000     1.0000  
 geomod              1.0000     1.0000     1.0000     1.0000  
 rgeomod             0.         0.         0.         0.      
 delvto              0.         0.         0.         0.      
 mulu0               1.0000     1.0000     1.0000     1.0000  
 delk1               0.         0.         0.         0.      
 delnfct             0.         0.         0.         0.      
 deltox              0.         0.         0.         0.      
 sa                  0.         0.         0.         0.      
 sb                  0.         0.         0.         0.      
 sd                  0.         0.         0.         0.      
 saeff               0.         0.         0.         0.      
 sbeff               0.         0.         0.         0.      
 m                   1.0000     1.0000     1.0000     1.0000  
 w drawn             1.7400u    1.7400u    1.7500u    1.7500u 
 l drawn            45.0000n   45.0000n   45.0000n   45.0000n 
  
  
                                                              
 element name        8:mm1      8:mm0      8:mm3      8:mm2   
 drain               8:net7     0:net42    0:net42    0:net42 
 gate                0:cout     0:a14      0:cout     0:a14   
 source              0:vss      8:net7     0:vdd      0:vdd   
 bulk                0:vss      0:vss      0:vdd      0:vdd   
 model               0:nmos     0:nmos     0:pmos     0:pmos  
 w eff               1.7300u    1.7300u    1.7400u    1.7400u 
 l eff              45.0000n   45.0000n   45.0000n   45.0000n 
 rd eff              0.         0.         0.         0.      
 rs eff              0.         0.         0.         0.      
 cdsat              10.0000f   10.0000f   10.0000f   10.0000f 
 cssat             137.5983a  137.5983a  138.3891a  138.3891a 
 capbd             868.2600a  868.2600a  873.2500a  873.2500a 
 capbs               1.3892f    1.3892f    1.3972f    1.3972f 
 temp               25.0000    25.0000    25.0000    25.0000  
 aic                                                          
 nf                  1.0000     1.0000     1.0000     1.0000  
 min                 0.         0.         0.         0.      
 rbdb               15.0000    15.0000    15.0000    15.0000  
 rbsb               15.0000    15.0000    15.0000    15.0000  
 rbpb                5.0000     5.0000     5.0000     5.0000  
 rbps               15.0000    15.0000    15.0000    15.0000  
 rbpd               15.0000    15.0000    15.0000    15.0000  
 trnqsmod            0.         0.         0.         0.      
 acnqsmod            0.         0.         0.         0.      
 rbodymod            1.0000     1.0000     1.0000     1.0000  
 rgatemod            1.0000     1.0000     1.0000     1.0000  
 geomod              1.0000     1.0000     1.0000     1.0000  
 rgeomod             0.         0.         0.         0.      
 delvto              0.         0.         0.         0.      
 mulu0               1.0000     1.0000     1.0000     1.0000  
 delk1               0.         0.         0.         0.      
 delnfct             0.         0.         0.         0.      
 deltox              0.         0.         0.         0.      
 sa                  0.         0.         0.         0.      
 sb                  0.         0.         0.         0.      
 sd                  0.         0.         0.         0.      
 saeff               0.         0.         0.         0.      
 sbeff               0.         0.         0.         0.      
 m                   1.0000     1.0000     1.0000     1.0000  
 w drawn             1.7400u    1.7400u    1.7500u    1.7500u 
 l drawn            45.0000n   45.0000n   45.0000n   45.0000n 
  
  
                                                              
 element name        9:mm1      9:mm0      9:mm3      9:mm2   
 drain               9:net7     0:net41    0:net41    0:net41 
 gate                0:cout     0:a15      0:cout     0:a15   
 source              0:vss      9:net7     0:vdd      0:vdd   
 bulk                0:vss      0:vss      0:vdd      0:vdd   
 model               0:nmos     0:nmos     0:pmos     0:pmos  
 w eff               1.7300u    1.7300u    1.7400u    1.7400u 
 l eff              45.0000n   45.0000n   45.0000n   45.0000n 
 rd eff              0.         0.         0.         0.      
 rs eff              0.         0.         0.         0.      
 cdsat              10.0000f   10.0000f   10.0000f   10.0000f 
 cssat             137.5983a  137.5983a  138.3891a  138.3891a 
 capbd             868.2600a  868.2600a  873.2500a  873.2500a 
 capbs               1.3892f    1.3892f    1.3972f    1.3972f 
 temp               25.0000    25.0000    25.0000    25.0000  
 aic                                                          
 nf                  1.0000     1.0000     1.0000     1.0000  
 min                 0.         0.         0.         0.      
 rbdb               15.0000    15.0000    15.0000    15.0000  
 rbsb               15.0000    15.0000    15.0000    15.0000  
 rbpb                5.0000     5.0000     5.0000     5.0000  
 rbps               15.0000    15.0000    15.0000    15.0000  
 rbpd               15.0000    15.0000    15.0000    15.0000  
 trnqsmod            0.         0.         0.         0.      
 acnqsmod            0.         0.         0.         0.      
 rbodymod            1.0000     1.0000     1.0000     1.0000  
 rgatemod            1.0000     1.0000     1.0000     1.0000  
 geomod              1.0000     1.0000     1.0000     1.0000  
 rgeomod             0.         0.         0.         0.      
 delvto              0.         0.         0.         0.      
 mulu0               1.0000     1.0000     1.0000     1.0000  
 delk1               0.         0.         0.         0.      
 delnfct             0.         0.         0.         0.      
 deltox              0.         0.         0.         0.      
 sa                  0.         0.         0.         0.      
 sb                  0.         0.         0.         0.      
 sd                  0.         0.         0.         0.      
 saeff               0.         0.         0.         0.      
 sbeff               0.         0.         0.         0.      
 m                   1.0000     1.0000     1.0000     1.0000  
 w drawn             1.7400u    1.7400u    1.7500u    1.7500u 
 l drawn            45.0000n   45.0000n   45.0000n   45.0000n 
  
  
                                                              
 element name       10:mm1     10:mm0     10:mm3     10:mm2   
 drain              10:net7     0:net50    0:net50    0:net50 
 gate                0:cout     0:a5       0:cout     0:a5    
 source              0:vss     10:net7     0:vdd      0:vdd   
 bulk                0:vss      0:vss      0:vdd      0:vdd   
 model               0:nmos     0:nmos     0:pmos     0:pmos  
 w eff               1.7300u    1.7300u    1.7400u    1.7400u 
 l eff              45.0000n   45.0000n   45.0000n   45.0000n 
 rd eff              0.         0.         0.         0.      
 rs eff              0.         0.         0.         0.      
 cdsat              10.0000f   10.0000f   10.0000f   10.0000f 
 cssat             137.5983a  137.5983a  138.3891a  138.3891a 
 capbd             868.2600a  868.2600a  873.2500a  873.2500a 
 capbs               1.3892f    1.3892f    1.3972f    1.3972f 
 temp               25.0000    25.0000    25.0000    25.0000  
 aic                                                          
 nf                  1.0000     1.0000     1.0000     1.0000  
 min                 0.         0.         0.         0.      
 rbdb               15.0000    15.0000    15.0000    15.0000  
 rbsb               15.0000    15.0000    15.0000    15.0000  
 rbpb                5.0000     5.0000     5.0000     5.0000  
 rbps               15.0000    15.0000    15.0000    15.0000  
 rbpd               15.0000    15.0000    15.0000    15.0000  
 trnqsmod            0.         0.         0.         0.      
 acnqsmod            0.         0.         0.         0.      
 rbodymod            1.0000     1.0000     1.0000     1.0000  
 rgatemod            1.0000     1.0000     1.0000     1.0000  
 geomod              1.0000     1.0000     1.0000     1.0000  
 rgeomod             0.         0.         0.         0.      
 delvto              0.         0.         0.         0.      
 mulu0               1.0000     1.0000     1.0000     1.0000  
 delk1               0.         0.         0.         0.      
 delnfct             0.         0.         0.         0.      
 deltox              0.         0.         0.         0.      
 sa                  0.         0.         0.         0.      
 sb                  0.         0.         0.         0.      
 sd                  0.         0.         0.         0.      
 saeff               0.         0.         0.         0.      
 sbeff               0.         0.         0.         0.      
 m                   1.0000     1.0000     1.0000     1.0000  
 w drawn             1.7400u    1.7400u    1.7500u    1.7500u 
 l drawn            45.0000n   45.0000n   45.0000n   45.0000n 
  
  
                                                              
 element name       11:mm1     11:mm0     11:mm3     11:mm2   
 drain              11:net7     0:net52    0:net52    0:net52 
 gate                0:cout     0:a4       0:cout     0:a4    
 source              0:vss     11:net7     0:vdd      0:vdd   
 bulk                0:vss      0:vss      0:vdd      0:vdd   
 model               0:nmos     0:nmos     0:pmos     0:pmos  
 w eff               1.7300u    1.7300u    1.7400u    1.7400u 
 l eff              45.0000n   45.0000n   45.0000n   45.0000n 
 rd eff              0.         0.         0.         0.      
 rs eff              0.         0.         0.         0.      
 cdsat              10.0000f   10.0000f   10.0000f   10.0000f 
 cssat             137.5983a  137.5983a  138.3891a  138.3891a 
 capbd             868.2600a  868.2600a  873.2500a  873.2500a 
 capbs               1.3892f    1.3892f    1.3972f    1.3972f 
 temp               25.0000    25.0000    25.0000    25.0000  
 aic                                                          
 nf                  1.0000     1.0000     1.0000     1.0000  
 min                 0.         0.         0.         0.      
 rbdb               15.0000    15.0000    15.0000    15.0000  
 rbsb               15.0000    15.0000    15.0000    15.0000  
 rbpb                5.0000     5.0000     5.0000     5.0000  
 rbps               15.0000    15.0000    15.0000    15.0000  
 rbpd               15.0000    15.0000    15.0000    15.0000  
 trnqsmod            0.         0.         0.         0.      
 acnqsmod            0.         0.         0.         0.      
 rbodymod            1.0000     1.0000     1.0000     1.0000  
 rgatemod            1.0000     1.0000     1.0000     1.0000  
 geomod              1.0000     1.0000     1.0000     1.0000  
 rgeomod             0.         0.         0.         0.      
 delvto              0.         0.         0.         0.      
 mulu0               1.0000     1.0000     1.0000     1.0000  
 delk1               0.         0.         0.         0.      
 delnfct             0.         0.         0.         0.      
 deltox              0.         0.         0.         0.      
 sa                  0.         0.         0.         0.      
 sb                  0.         0.         0.         0.      
 sd                  0.         0.         0.         0.      
 saeff               0.         0.         0.         0.      
 sbeff               0.         0.         0.         0.      
 m                   1.0000     1.0000     1.0000     1.0000  
 w drawn             1.7400u    1.7400u    1.7500u    1.7500u 
 l drawn            45.0000n   45.0000n   45.0000n   45.0000n 
  
  
                                                              
 element name       12:mm1     12:mm0     12:mm3     12:mm2   
 drain              12:net7     0:net55    0:net55    0:net55 
 gate                0:cout     0:a1       0:cout     0:a1    
 source              0:vss     12:net7     0:vdd      0:vdd   
 bulk                0:vss      0:vss      0:vdd      0:vdd   
 model               0:nmos     0:nmos     0:pmos     0:pmos  
 w eff               1.7300u    1.7300u    1.7400u    1.7400u 
 l eff              45.0000n   45.0000n   45.0000n   45.0000n 
 rd eff              0.         0.         0.         0.      
 rs eff              0.         0.         0.         0.      
 cdsat              10.0000f   10.0000f   10.0000f   10.0000f 
 cssat             137.5983a  137.5983a  138.3891a  138.3891a 
 capbd             868.2600a  868.2600a  873.2500a  873.2500a 
 capbs               1.3892f    1.3892f    1.3972f    1.3972f 
 temp               25.0000    25.0000    25.0000    25.0000  
 aic                                                          
 nf                  1.0000     1.0000     1.0000     1.0000  
 min                 0.         0.         0.         0.      
 rbdb               15.0000    15.0000    15.0000    15.0000  
 rbsb               15.0000    15.0000    15.0000    15.0000  
 rbpb                5.0000     5.0000     5.0000     5.0000  
 rbps               15.0000    15.0000    15.0000    15.0000  
 rbpd               15.0000    15.0000    15.0000    15.0000  
 trnqsmod            0.         0.         0.         0.      
 acnqsmod            0.         0.         0.         0.      
 rbodymod            1.0000     1.0000     1.0000     1.0000  
 rgatemod            1.0000     1.0000     1.0000     1.0000  
 geomod              1.0000     1.0000     1.0000     1.0000  
 rgeomod             0.         0.         0.         0.      
 delvto              0.         0.         0.         0.      
 mulu0               1.0000     1.0000     1.0000     1.0000  
 delk1               0.         0.         0.         0.      
 delnfct             0.         0.         0.         0.      
 deltox              0.         0.         0.         0.      
 sa                  0.         0.         0.         0.      
 sb                  0.         0.         0.         0.      
 sd                  0.         0.         0.         0.      
 saeff               0.         0.         0.         0.      
 sbeff               0.         0.         0.         0.      
 m                   1.0000     1.0000     1.0000     1.0000  
 w drawn             1.7400u    1.7400u    1.7500u    1.7500u 
 l drawn            45.0000n   45.0000n   45.0000n   45.0000n 
  
  
                                                              
 element name       13:mm1     13:mm0     13:mm3     13:mm2   
 drain              13:net7     0:net54    0:net54    0:net54 
 gate                0:cout     0:a2       0:cout     0:a2    
 source              0:vss     13:net7     0:vdd      0:vdd   
 bulk                0:vss      0:vss      0:vdd      0:vdd   
 model               0:nmos     0:nmos     0:pmos     0:pmos  
 w eff               1.7300u    1.7300u    1.7400u    1.7400u 
 l eff              45.0000n   45.0000n   45.0000n   45.0000n 
 rd eff              0.         0.         0.         0.      
 rs eff              0.         0.         0.         0.      
 cdsat              10.0000f   10.0000f   10.0000f   10.0000f 
 cssat             137.5983a  137.5983a  138.3891a  138.3891a 
 capbd             868.2600a  868.2600a  873.2500a  873.2500a 
 capbs               1.3892f    1.3892f    1.3972f    1.3972f 
 temp               25.0000    25.0000    25.0000    25.0000  
 aic                                                          
 nf                  1.0000     1.0000     1.0000     1.0000  
 min                 0.         0.         0.         0.      
 rbdb               15.0000    15.0000    15.0000    15.0000  
 rbsb               15.0000    15.0000    15.0000    15.0000  
 rbpb                5.0000     5.0000     5.0000     5.0000  
 rbps               15.0000    15.0000    15.0000    15.0000  
 rbpd               15.0000    15.0000    15.0000    15.0000  
 trnqsmod            0.         0.         0.         0.      
 acnqsmod            0.         0.         0.         0.      
 rbodymod            1.0000     1.0000     1.0000     1.0000  
 rgatemod            1.0000     1.0000     1.0000     1.0000  
 geomod              1.0000     1.0000     1.0000     1.0000  
 rgeomod             0.         0.         0.         0.      
 delvto              0.         0.         0.         0.      
 mulu0               1.0000     1.0000     1.0000     1.0000  
 delk1               0.         0.         0.         0.      
 delnfct             0.         0.         0.         0.      
 deltox              0.         0.         0.         0.      
 sa                  0.         0.         0.         0.      
 sb                  0.         0.         0.         0.      
 sd                  0.         0.         0.         0.      
 saeff               0.         0.         0.         0.      
 sbeff               0.         0.         0.         0.      
 m                   1.0000     1.0000     1.0000     1.0000  
 w drawn             1.7400u    1.7400u    1.7500u    1.7500u 
 l drawn            45.0000n   45.0000n   45.0000n   45.0000n 
  
  
                                                              
 element name       14:mm1     14:mm0     14:mm3     14:mm2   
 drain              14:net7     0:net53    0:net53    0:net53 
 gate                0:cout     0:a3       0:cout     0:a3    
 source              0:vss     14:net7     0:vdd      0:vdd   
 bulk                0:vss      0:vss      0:vdd      0:vdd   
 model               0:nmos     0:nmos     0:pmos     0:pmos  
 w eff               1.7300u    1.7300u    1.7400u    1.7400u 
 l eff              45.0000n   45.0000n   45.0000n   45.0000n 
 rd eff              0.         0.         0.         0.      
 rs eff              0.         0.         0.         0.      
 cdsat              10.0000f   10.0000f   10.0000f   10.0000f 
 cssat             137.5983a  137.5983a  138.3891a  138.3891a 
 capbd             868.2600a  868.2600a  873.2500a  873.2500a 
 capbs               1.3892f    1.3892f    1.3972f    1.3972f 
 temp               25.0000    25.0000    25.0000    25.0000  
 aic                                                          
 nf                  1.0000     1.0000     1.0000     1.0000  
 min                 0.         0.         0.         0.      
 rbdb               15.0000    15.0000    15.0000    15.0000  
 rbsb               15.0000    15.0000    15.0000    15.0000  
 rbpb                5.0000     5.0000     5.0000     5.0000  
 rbps               15.0000    15.0000    15.0000    15.0000  
 rbpd               15.0000    15.0000    15.0000    15.0000  
 trnqsmod            0.         0.         0.         0.      
 acnqsmod            0.         0.         0.         0.      
 rbodymod            1.0000     1.0000     1.0000     1.0000  
 rgatemod            1.0000     1.0000     1.0000     1.0000  
 geomod              1.0000     1.0000     1.0000     1.0000  
 rgeomod             0.         0.         0.         0.      
 delvto              0.         0.         0.         0.      
 mulu0               1.0000     1.0000     1.0000     1.0000  
 delk1               0.         0.         0.         0.      
 delnfct             0.         0.         0.         0.      
 deltox              0.         0.         0.         0.      
 sa                  0.         0.         0.         0.      
 sb                  0.         0.         0.         0.      
 sd                  0.         0.         0.         0.      
 saeff               0.         0.         0.         0.      
 sbeff               0.         0.         0.         0.      
 m                   1.0000     1.0000     1.0000     1.0000  
 w drawn             1.7400u    1.7400u    1.7500u    1.7500u 
 l drawn            45.0000n   45.0000n   45.0000n   45.0000n 
  
  
                                                              
 element name       15:mm1     15:mm0     15:mm3     15:mm2   
 drain              15:net7     0:net56    0:net56    0:net56 
 gate                0:cout     0:a0       0:cout     0:a0    
 source              0:vss     15:net7     0:vdd      0:vdd   
 bulk                0:vss      0:vss      0:vdd      0:vdd   
 model               0:nmos     0:nmos     0:pmos     0:pmos  
 w eff               1.7300u    1.7300u    1.7400u    1.7400u 
 l eff              45.0000n   45.0000n   45.0000n   45.0000n 
 rd eff              0.         0.         0.         0.      
 rs eff              0.         0.         0.         0.      
 cdsat              10.0000f   10.0000f   10.0000f   10.0000f 
 cssat             137.5983a  137.5983a  138.3891a  138.3891a 
 capbd             868.2600a  868.2600a  873.2500a  873.2500a 
 capbs               1.3892f    1.3892f    1.3972f    1.3972f 
 temp               25.0000    25.0000    25.0000    25.0000  
 aic                                                          
 nf                  1.0000     1.0000     1.0000     1.0000  
 min                 0.         0.         0.         0.      
 rbdb               15.0000    15.0000    15.0000    15.0000  
 rbsb               15.0000    15.0000    15.0000    15.0000  
 rbpb                5.0000     5.0000     5.0000     5.0000  
 rbps               15.0000    15.0000    15.0000    15.0000  
 rbpd               15.0000    15.0000    15.0000    15.0000  
 trnqsmod            0.         0.         0.         0.      
 acnqsmod            0.         0.         0.         0.      
 rbodymod            1.0000     1.0000     1.0000     1.0000  
 rgatemod            1.0000     1.0000     1.0000     1.0000  
 geomod              1.0000     1.0000     1.0000     1.0000  
 rgeomod             0.         0.         0.         0.      
 delvto              0.         0.         0.         0.      
 mulu0               1.0000     1.0000     1.0000     1.0000  
 delk1               0.         0.         0.         0.      
 delnfct             0.         0.         0.         0.      
 deltox              0.         0.         0.         0.      
 sa                  0.         0.         0.         0.      
 sb                  0.         0.         0.         0.      
 sd                  0.         0.         0.         0.      
 saeff               0.         0.         0.         0.      
 sbeff               0.         0.         0.         0.      
 m                   1.0000     1.0000     1.0000     1.0000  
 w drawn             1.7400u    1.7400u    1.7500u    1.7500u 
 l drawn            45.0000n   45.0000n   45.0000n   45.0000n 
  
  
                                                              
 element name       16:mm1     16:mm0     16:mm3     16:mm2   
 drain              16:net7     0:net51    0:net51    0:net51 
 gate                0:cout     0:a6       0:cout     0:a6    
 source              0:vss     16:net7     0:vdd      0:vdd   
 bulk                0:vss      0:vss      0:vdd      0:vdd   
 model               0:nmos     0:nmos     0:pmos     0:pmos  
 w eff               1.7300u    1.7300u    1.7400u    1.7400u 
 l eff              45.0000n   45.0000n   45.0000n   45.0000n 
 rd eff              0.         0.         0.         0.      
 rs eff              0.         0.         0.         0.      
 cdsat              10.0000f   10.0000f   10.0000f   10.0000f 
 cssat             137.5983a  137.5983a  138.3891a  138.3891a 
 capbd             868.2600a  868.2600a  873.2500a  873.2500a 
 capbs               1.3892f    1.3892f    1.3972f    1.3972f 
 temp               25.0000    25.0000    25.0000    25.0000  
 aic                                                          
 nf                  1.0000     1.0000     1.0000     1.0000  
 min                 0.         0.         0.         0.      
 rbdb               15.0000    15.0000    15.0000    15.0000  
 rbsb               15.0000    15.0000    15.0000    15.0000  
 rbpb                5.0000     5.0000     5.0000     5.0000  
 rbps               15.0000    15.0000    15.0000    15.0000  
 rbpd               15.0000    15.0000    15.0000    15.0000  
 trnqsmod            0.         0.         0.         0.      
 acnqsmod            0.         0.         0.         0.      
 rbodymod            1.0000     1.0000     1.0000     1.0000  
 rgatemod            1.0000     1.0000     1.0000     1.0000  
 geomod              1.0000     1.0000     1.0000     1.0000  
 rgeomod             0.         0.         0.         0.      
 delvto              0.         0.         0.         0.      
 mulu0               1.0000     1.0000     1.0000     1.0000  
 delk1               0.         0.         0.         0.      
 delnfct             0.         0.         0.         0.      
 deltox              0.         0.         0.         0.      
 sa                  0.         0.         0.         0.      
 sb                  0.         0.         0.         0.      
 sd                  0.         0.         0.         0.      
 saeff               0.         0.         0.         0.      
 sbeff               0.         0.         0.         0.      
 m                   1.0000     1.0000     1.0000     1.0000  
 w drawn             1.7400u    1.7400u    1.7500u    1.7500u 
 l drawn            45.0000n   45.0000n   45.0000n   45.0000n 
  
  
                                                              
 element name       17:mm1     17:mm0     17:mm3     17:mm2   
 drain              17:net7     0:net49    0:net49    0:net49 
 gate                0:cout     0:a7       0:cout     0:a7    
 source              0:vss     17:net7     0:vdd      0:vdd   
 bulk                0:vss      0:vss      0:vdd      0:vdd   
 model               0:nmos     0:nmos     0:pmos     0:pmos  
 w eff               1.7300u    1.7300u    1.7400u    1.7400u 
 l eff              45.0000n   45.0000n   45.0000n   45.0000n 
 rd eff              0.         0.         0.         0.      
 rs eff              0.         0.         0.         0.      
 cdsat              10.0000f   10.0000f   10.0000f   10.0000f 
 cssat             137.5983a  137.5983a  138.3891a  138.3891a 
 capbd             868.2600a  868.2600a  873.2500a  873.2500a 
 capbs               1.3892f    1.3892f    1.3972f    1.3972f 
 temp               25.0000    25.0000    25.0000    25.0000  
 aic                                                          
 nf                  1.0000     1.0000     1.0000     1.0000  
 min                 0.         0.         0.         0.      
 rbdb               15.0000    15.0000    15.0000    15.0000  
 rbsb               15.0000    15.0000    15.0000    15.0000  
 rbpb                5.0000     5.0000     5.0000     5.0000  
 rbps               15.0000    15.0000    15.0000    15.0000  
 rbpd               15.0000    15.0000    15.0000    15.0000  
 trnqsmod            0.         0.         0.         0.      
 acnqsmod            0.         0.         0.         0.      
 rbodymod            1.0000     1.0000     1.0000     1.0000  
 rgatemod            1.0000     1.0000     1.0000     1.0000  
 geomod              1.0000     1.0000     1.0000     1.0000  
 rgeomod             0.         0.         0.         0.      
 delvto              0.         0.         0.         0.      
 mulu0               1.0000     1.0000     1.0000     1.0000  
 delk1               0.         0.         0.         0.      
 delnfct             0.         0.         0.         0.      
 deltox              0.         0.         0.         0.      
 sa                  0.         0.         0.         0.      
 sb                  0.         0.         0.         0.      
 sd                  0.         0.         0.         0.      
 saeff               0.         0.         0.         0.      
 sbeff               0.         0.         0.         0.      
 m                   1.0000     1.0000     1.0000     1.0000  
 w drawn             1.7400u    1.7400u    1.7500u    1.7500u 
 l drawn            45.0000n   45.0000n   45.0000n   45.0000n 
  
  
                                                              
 element name       19:mm0     19:mm1     20:mm0     20:mm1   
 drain               0:y15      0:y15      0:y14      0:y14   
 gate                0:net41    0:net41    0:net42    0:net42 
 source              0:vss      0:vdd      0:vss      0:vdd   
 bulk                0:vss      0:vdd      0:vss      0:vdd   
 model               0:nmos     0:pmos     0:nmos     0:pmos  
 w eff               2.5300u    5.0600u    2.5300u    5.0600u 
 l eff              45.0000n   45.0000n   45.0000n   45.0000n 
 rd eff              0.         0.         0.         0.      
 rs eff              0.         0.         0.         0.      
 cdsat              10.0000f   10.0000f   10.0000f   10.0000f 
 cssat             200.8618a  400.9329a  200.8618a  400.9329a 
 capbd               1.2675f    2.5299f    1.2675f    2.5299f 
 capbs               2.0279f    4.0479f    2.0279f    4.0479f 
 temp               25.0000    25.0000    25.0000    25.0000  
 aic                                                          
 nf                  1.0000     1.0000     1.0000     1.0000  
 min                 0.         0.         0.         0.      
 rbdb               15.0000    15.0000    15.0000    15.0000  
 rbsb               15.0000    15.0000    15.0000    15.0000  
 rbpb                5.0000     5.0000     5.0000     5.0000  
 rbps               15.0000    15.0000    15.0000    15.0000  
 rbpd               15.0000    15.0000    15.0000    15.0000  
 trnqsmod            0.         0.         0.         0.      
 acnqsmod            0.         0.         0.         0.      
 rbodymod            1.0000     1.0000     1.0000     1.0000  
 rgatemod            1.0000     1.0000     1.0000     1.0000  
 geomod              1.0000     1.0000     1.0000     1.0000  
 rgeomod             0.         0.         0.         0.      
 delvto              0.         0.         0.         0.      
 mulu0               1.0000     1.0000     1.0000     1.0000  
 delk1               0.         0.         0.         0.      
 delnfct             0.         0.         0.         0.      
 deltox              0.         0.         0.         0.      
 sa                  0.         0.         0.         0.      
 sb                  0.         0.         0.         0.      
 sd                  0.         0.         0.         0.      
 saeff               0.         0.         0.         0.      
 sbeff               0.         0.         0.         0.      
 m                   1.0000     1.0000     1.0000     1.0000  
 w drawn             2.5400u    5.0700u    2.5400u    5.0700u 
 l drawn            45.0000n   45.0000n   45.0000n   45.0000n 
  
  
                                                              
 element name       21:mm0     21:mm1     22:mm0     22:mm1   
 drain               0:y13      0:y13      0:y12      0:y12   
 gate                0:net44    0:net44    0:net43    0:net43 
 source              0:vss      0:vdd      0:vss      0:vdd   
 bulk                0:vss      0:vdd      0:vss      0:vdd   
 model               0:nmos     0:pmos     0:nmos     0:pmos  
 w eff               2.5300u    5.0600u    2.5300u    5.0600u 
 l eff              45.0000n   45.0000n   45.0000n   45.0000n 
 rd eff              0.         0.         0.         0.      
 rs eff              0.         0.         0.         0.      
 cdsat              10.0000f   10.0000f   10.0000f   10.0000f 
 cssat             200.8618a  400.9329a  200.8618a  400.9329a 
 capbd               1.2675f    2.5299f    1.2675f    2.5299f 
 capbs               2.0279f    4.0479f    2.0279f    4.0479f 
 temp               25.0000    25.0000    25.0000    25.0000  
 aic                                                          
 nf                  1.0000     1.0000     1.0000     1.0000  
 min                 0.         0.         0.         0.      
 rbdb               15.0000    15.0000    15.0000    15.0000  
 rbsb               15.0000    15.0000    15.0000    15.0000  
 rbpb                5.0000     5.0000     5.0000     5.0000  
 rbps               15.0000    15.0000    15.0000    15.0000  
 rbpd               15.0000    15.0000    15.0000    15.0000  
 trnqsmod            0.         0.         0.         0.      
 acnqsmod            0.         0.         0.         0.      
 rbodymod            1.0000     1.0000     1.0000     1.0000  
 rgatemod            1.0000     1.0000     1.0000     1.0000  
 geomod              1.0000     1.0000     1.0000     1.0000  
 rgeomod             0.         0.         0.         0.      
 delvto              0.         0.         0.         0.      
 mulu0               1.0000     1.0000     1.0000     1.0000  
 delk1               0.         0.         0.         0.      
 delnfct             0.         0.         0.         0.      
 deltox              0.         0.         0.         0.      
 sa                  0.         0.         0.         0.      
 sb                  0.         0.         0.         0.      
 sd                  0.         0.         0.         0.      
 saeff               0.         0.         0.         0.      
 sbeff               0.         0.         0.         0.      
 m                   1.0000     1.0000     1.0000     1.0000  
 w drawn             2.5400u    5.0700u    2.5400u    5.0700u 
 l drawn            45.0000n   45.0000n   45.0000n   45.0000n 
  
  
                                                              
 element name       23:mm0     23:mm1     24:mm0     24:mm1   
 drain               0:y8       0:y8       0:y9       0:y9    
 gate                0:net46    0:net46    0:net45    0:net45 
 source              0:vss      0:vdd      0:vss      0:vdd   
 bulk                0:vss      0:vdd      0:vss      0:vdd   
 model               0:nmos     0:pmos     0:nmos     0:pmos  
 w eff               2.5300u    5.0600u    2.5300u    5.0600u 
 l eff              45.0000n   45.0000n   45.0000n   45.0000n 
 rd eff              0.         0.         0.         0.      
 rs eff              0.         0.         0.         0.      
 cdsat              10.0000f   10.0000f   10.0000f   10.0000f 
 cssat             200.8618a  400.9329a  200.8618a  400.9329a 
 capbd               1.2675f    2.5299f    1.2675f    2.5299f 
 capbs               2.0279f    4.0479f    2.0279f    4.0479f 
 temp               25.0000    25.0000    25.0000    25.0000  
 aic                                                          
 nf                  1.0000     1.0000     1.0000     1.0000  
 min                 0.         0.         0.         0.      
 rbdb               15.0000    15.0000    15.0000    15.0000  
 rbsb               15.0000    15.0000    15.0000    15.0000  
 rbpb                5.0000     5.0000     5.0000     5.0000  
 rbps               15.0000    15.0000    15.0000    15.0000  
 rbpd               15.0000    15.0000    15.0000    15.0000  
 trnqsmod            0.         0.         0.         0.      
 acnqsmod            0.         0.         0.         0.      
 rbodymod            1.0000     1.0000     1.0000     1.0000  
 rgatemod            1.0000     1.0000     1.0000     1.0000  
 geomod              1.0000     1.0000     1.0000     1.0000  
 rgeomod             0.         0.         0.         0.      
 delvto              0.         0.         0.         0.      
 mulu0               1.0000     1.0000     1.0000     1.0000  
 delk1               0.         0.         0.         0.      
 delnfct             0.         0.         0.         0.      
 deltox              0.         0.         0.         0.      
 sa                  0.         0.         0.         0.      
 sb                  0.         0.         0.         0.      
 sd                  0.         0.         0.         0.      
 saeff               0.         0.         0.         0.      
 sbeff               0.         0.         0.         0.      
 m                   1.0000     1.0000     1.0000     1.0000  
 w drawn             2.5400u    5.0700u    2.5400u    5.0700u 
 l drawn            45.0000n   45.0000n   45.0000n   45.0000n 
  
  
                                                              
 element name       25:mm0     25:mm1     26:mm0     26:mm1   
 drain               0:y10      0:y10      0:y11      0:y11   
 gate                0:net47    0:net47    0:net48    0:net48 
 source              0:vss      0:vdd      0:vss      0:vdd   
 bulk                0:vss      0:vdd      0:vss      0:vdd   
 model               0:nmos     0:pmos     0:nmos     0:pmos  
 w eff               2.5300u    5.0600u    2.5300u    5.0600u 
 l eff              45.0000n   45.0000n   45.0000n   45.0000n 
 rd eff              0.         0.         0.         0.      
 rs eff              0.         0.         0.         0.      
 cdsat              10.0000f   10.0000f   10.0000f   10.0000f 
 cssat             200.8618a  400.9329a  200.8618a  400.9329a 
 capbd               1.2675f    2.5299f    1.2675f    2.5299f 
 capbs               2.0279f    4.0479f    2.0279f    4.0479f 
 temp               25.0000    25.0000    25.0000    25.0000  
 aic                                                          
 nf                  1.0000     1.0000     1.0000     1.0000  
 min                 0.         0.         0.         0.      
 rbdb               15.0000    15.0000    15.0000    15.0000  
 rbsb               15.0000    15.0000    15.0000    15.0000  
 rbpb                5.0000     5.0000     5.0000     5.0000  
 rbps               15.0000    15.0000    15.0000    15.0000  
 rbpd               15.0000    15.0000    15.0000    15.0000  
 trnqsmod            0.         0.         0.         0.      
 acnqsmod            0.         0.         0.         0.      
 rbodymod            1.0000     1.0000     1.0000     1.0000  
 rgatemod            1.0000     1.0000     1.0000     1.0000  
 geomod              1.0000     1.0000     1.0000     1.0000  
 rgeomod             0.         0.         0.         0.      
 delvto              0.         0.         0.         0.      
 mulu0               1.0000     1.0000     1.0000     1.0000  
 delk1               0.         0.         0.         0.      
 delnfct             0.         0.         0.         0.      
 deltox              0.         0.         0.         0.      
 sa                  0.         0.         0.         0.      
 sb                  0.         0.         0.         0.      
 sd                  0.         0.         0.         0.      
 saeff               0.         0.         0.         0.      
 sbeff               0.         0.         0.         0.      
 m                   1.0000     1.0000     1.0000     1.0000  
 w drawn             2.5400u    5.0700u    2.5400u    5.0700u 
 l drawn            45.0000n   45.0000n   45.0000n   45.0000n 
  
  
                                                              
 element name       27:mm0     27:mm1     28:mm0     28:mm1   
 drain               0:y7       0:y7       0:y5       0:y5    
 gate                0:net49    0:net49    0:net50    0:net50 
 source              0:vss      0:vdd      0:vss      0:vdd   
 bulk                0:vss      0:vdd      0:vss      0:vdd   
 model               0:nmos     0:pmos     0:nmos     0:pmos  
 w eff               2.5300u    5.0600u    2.5300u    5.0600u 
 l eff              45.0000n   45.0000n   45.0000n   45.0000n 
 rd eff              0.         0.         0.         0.      
 rs eff              0.         0.         0.         0.      
 cdsat              10.0000f   10.0000f   10.0000f   10.0000f 
 cssat             200.8618a  400.9329a  200.8618a  400.9329a 
 capbd               1.2675f    2.5299f    1.2675f    2.5299f 
 capbs               2.0279f    4.0479f    2.0279f    4.0479f 
 temp               25.0000    25.0000    25.0000    25.0000  
 aic                                                          
 nf                  1.0000     1.0000     1.0000     1.0000  
 min                 0.         0.         0.         0.      
 rbdb               15.0000    15.0000    15.0000    15.0000  
 rbsb               15.0000    15.0000    15.0000    15.0000  
 rbpb                5.0000     5.0000     5.0000     5.0000  
 rbps               15.0000    15.0000    15.0000    15.0000  
 rbpd               15.0000    15.0000    15.0000    15.0000  
 trnqsmod            0.         0.         0.         0.      
 acnqsmod            0.         0.         0.         0.      
 rbodymod            1.0000     1.0000     1.0000     1.0000  
 rgatemod            1.0000     1.0000     1.0000     1.0000  
 geomod              1.0000     1.0000     1.0000     1.0000  
 rgeomod             0.         0.         0.         0.      
 delvto              0.         0.         0.         0.      
 mulu0               1.0000     1.0000     1.0000     1.0000  
 delk1               0.         0.         0.         0.      
[...]
 xi13.net7        xi13.mm1:d       xi13.mm0:s                                         
 xi12.net7        xi12.mm1:d       xi12.mm0:s                                         
 xi11.net7        xi11.mm1:d       xi11.mm0:s                                         
 xi10.net7        xi10.mm1:d       xi10.mm0:s                                         
 xi9.net7         xi9.mm1:d        xi9.mm0:s                                          
 xi8.net7         xi8.mm1:d        xi8.mm0:s                                          
 xi5.net7         xi5.mm1:d        xi5.mm0:s                                          
 xi1.net7         xi1.mm1:d        xi1.mm0:s                                          
 xi4.net7         xi4.mm1:d        xi4.mm0:s                                          
 xi3.net7         xi3.mm1:d        xi3.mm0:s                                          
 xi2.net7         xi2.mm1:d        xi2.mm0:s                                          
 xi6.net7         xi6.mm1:d        xi6.mm0:s                                          
 xi7.net7         xi7.mm1:d        xi7.mm0:s                                          
 xi17.net1        64:mm0:d         64:mm5:d         64:mm4:d         64:mm3:d         
                  73:mm2:g         73:mm5:g                                           
 xi17.net100      56:mm0:d         56:mm5:d         56:mm4:d         56:mm3:d         
                  71:mm7:g         71:mm6:g                                           
 xi17.net104      54:mm0:d         54:mm5:d         54:mm4:d         54:mm3:d         
                  72:mm0:g         72:mm3:g                                           
 xi17.net106      60:mm0:d         60:mm5:d         60:mm4:d         60:mm3:d         
                  72:mm2:g         72:mm5:g                                           
 xi17.net107      59:mm0:d         59:mm5:d         59:mm4:d         59:mm3:d         
                  72:mm7:g         72:mm6:g                                           
 xi17.net2        65:mm0:d         65:mm5:d         65:mm4:d         65:mm3:d         
                  73:mm1:g         73:mm4:g                                           
 xi17.net3        67:mm0:d         67:mm5:d         67:mm4:d         67:mm3:d         
                  74:mm2:g         74:mm5:g                                           
 xi17.net4        68:mm0:d         68:mm5:d         68:mm4:d         68:mm3:d         
                  74:mm1:g         74:mm4:g                                           
 xi17.net5        63:mm0:d         63:mm5:d         63:mm4:d         63:mm3:d         
                  73:mm7:g         73:mm6:g                                           
 xi17.net6        62:mm0:d         62:mm5:d         62:mm4:d         62:mm3:d         
                  73:mm0:g         73:mm3:g                                           
 xi17.net7        66:mm0:d         66:mm5:d         66:mm4:d         66:mm3:d         
                  74:mm7:g         74:mm6:g                                           
 xi17.net8        69:mm0:d         69:mm5:d         69:mm4:d         69:mm3:d         
                  74:mm0:g         74:mm3:g                                           
 xi17.net83       61:mm0:d         61:mm5:d         61:mm4:d         61:mm3:d         
                  72:mm1:g         72:mm4:g                                           
 xi17.net90       50:mm0:d         50:mm5:d         50:mm4:d         50:mm3:d         
                  70:mm0:g         70:mm3:g                                           
 xi17.net91       53:mm0:d         53:mm5:d         53:mm4:d         53:mm3:d         
                  70:mm1:g         70:mm4:g                                           
 xi17.net92       52:mm0:d         52:mm5:d         52:mm4:d         52:mm3:d         
                  70:mm2:g         70:mm5:g                                           
 xi17.net93       51:mm0:d         51:mm5:d         51:mm4:d         51:mm3:d         
                  70:mm7:g         70:mm6:g                                           
 xi17.net97       55:mm0:d         55:mm5:d         55:mm4:d         55:mm3:d         
                  71:mm0:g         71:mm3:g                                           
 xi17.net98       58:mm0:d         58:mm5:d         58:mm4:d         58:mm3:d         
                  71:mm1:g         71:mm4:g                                           
 xi17.net99       57:mm0:d         57:mm5:d         57:mm4:d         57:mm3:d         
                  71:mm2:g         71:mm5:g                                           
 xi17.temp1       50:mm0:g         50:mm3:g         74:mm0:d         74:mm6:d         
                  74:mm5:d         74:mm4:d         74:mm3:d                          
 xi17.temp2       53:mm0:g         53:mm3:g         73:mm0:d         73:mm6:d         
                  73:mm5:d         73:mm4:d         73:mm3:d                          
 xi17.temp3       52:mm0:g         52:mm3:g         72:mm0:d         72:mm6:d         
                  72:mm5:d         72:mm4:d         72:mm3:d                          
 xi17.temp4       51:mm0:g         51:mm3:g         71:mm0:d         71:mm6:d         
                  71:mm5:d         71:mm4:d         71:mm3:d                          
 xi17.~s0         50:mm1:g         50:mm4:g         53:mm1:g         53:mm4:g         
                  78:mm0:d         78:mm1:d                                           
 xi17.~s1         50:mm2:g         50:mm5:g         52:mm2:g         52:mm5:g         
                  77:mm0:d         77:mm1:d                                           
 xi17.~s2         54:mm1:g         54:mm4:g         55:mm1:g         55:mm4:g         
                  58:mm1:g         58:mm4:g         61:mm1:g         61:mm4:g         
                  62:mm1:g         62:mm4:g         65:mm1:g         65:mm4:g         
                  68:mm1:g         68:mm4:g         69:mm1:g         69:mm4:g         
                  75:mm0:d         75:mm1:d                                           
 xi17.~s3         54:mm2:g         54:mm5:g         55:mm2:g         55:mm5:g         
                  57:mm2:g         57:mm5:g         60:mm2:g         60:mm5:g         
                  62:mm2:g         62:mm5:g         64:mm2:g         64:mm5:g         
                  67:mm2:g         67:mm5:g         69:mm2:g         69:mm5:g         
                  76:mm0:d         76:mm1:d                                           
 xi0.xi6.net7     35:mm1:d         35:mm0:s                                           
 xi0.xi5.net7     36:mm1:d         36:mm0:s                                           
 xi0.xi7.net7     37:mm1:d         37:mm0:s                                           
 xi0.xi4.net7     38:mm1:d         38:mm0:s                                           
 xi0.xi13.net7    39:mm1:d         39:mm0:s                                           
 xi0.xi3.net7     40:mm1:d         40:mm0:s                                           
 xi0.xi2.net7     41:mm1:d         41:mm0:s                                           
 xi0.xi1.net7     42:mm1:d         42:mm0:s                                           
 xi0.xi0.net7     43:mm1:d         43:mm0:s                                           
 xi0.xi12.net7    44:mm1:d         44:mm0:s                                           
 xi0.xi8.net4     45:mm3:s         45:mm2:d                                           
 xi0.xi14.net4    46:mm3:s         46:mm2:d                                           
 xi0.xi11.net4    47:mm3:s         47:mm2:d                                           
 xi0.xi10.net4    48:mm3:s         48:mm2:d                                           
 xi0.xi9.net4     49:mm3:s         49:mm2:d                                           
 xi17.xi24.net8   50:mm1:d         50:mm0:s                                           
 xi17.xi24.net9   50:mm2:d         50:mm1:s                                           
 xi17.xi22.net8   51:mm1:d         51:mm0:s                                           
 xi17.xi22.net9   51:mm2:d         51:mm1:s                                           
 xi17.xi21.net8   52:mm1:d         52:mm0:s                                           
 xi17.xi21.net9   52:mm2:d         52:mm1:s                                           
 xi17.xi20.net8   53:mm1:d         53:mm0:s                                           
 xi17.xi20.net9   53:mm2:d         53:mm1:s                                           
 xi17.xi15.net8   54:mm1:d         54:mm0:s                                           
 xi17.xi15.net9   54:mm2:d         54:mm1:s                                           
 xi17.xi14.net8   55:mm1:d         55:mm0:s                                           
 xi17.xi14.net9   55:mm2:d         55:mm1:s                                           
 xi17.xi13.net8   56:mm1:d         56:mm0:s                                           
 xi17.xi13.net9   56:mm2:d         56:mm1:s                                           
 xi17.xi12.net8   57:mm1:d         57:mm0:s                                           
 xi17.xi12.net9   57:mm2:d         57:mm1:s                                           
 xi17.xi11.net8   58:mm1:d         58:mm0:s                                           
 xi17.xi11.net9   58:mm2:d         58:mm1:s                                           
 xi17.xi10.net8   59:mm1:d         59:mm0:s                                           
 xi17.xi10.net9   59:mm2:d         59:mm1:s                                           
 xi17.xi9.net8    60:mm1:d         60:mm0:s                                           
 xi17.xi9.net9    60:mm2:d         60:mm1:s                                           
 xi17.xi8.net8    61:mm1:d         61:mm0:s                                           
 xi17.xi8.net9    61:mm2:d         61:mm1:s                                           
 xi17.xi7.net8    62:mm1:d         62:mm0:s                                           
 xi17.xi7.net9    62:mm2:d         62:mm1:s                                           
 xi17.xi6.net8    63:mm1:d         63:mm0:s                                           
 xi17.xi6.net9    63:mm2:d         63:mm1:s                                           
 xi17.xi5.net8    64:mm1:d         64:mm0:s                                           
 xi17.xi5.net9    64:mm2:d         64:mm1:s                                           
 xi17.xi4.net8    65:mm1:d         65:mm0:s                                           
 xi17.xi4.net9    65:mm2:d         65:mm1:s                                           
 xi17.xi3.net8    66:mm1:d         66:mm0:s                                           
 xi17.xi3.net9    66:mm2:d         66:mm1:s                                           
 xi17.xi2.net8    67:mm1:d         67:mm0:s                                           
 xi17.xi2.net9    67:mm2:d         67:mm1:s                                           
 xi17.xi1.net8    68:mm1:d         68:mm0:s                                           
 xi17.xi1.net9    68:mm2:d         68:mm1:s                                           
 xi17.xi0.net8    69:mm1:d         69:mm0:s                                           
 xi17.xi0.net9    69:mm2:d         69:mm1:s                                           
 xi17.xi23.net54  70:mm2:d         70:mm1:s                                           
 xi17.xi23.net55  70:mm1:d         70:mm0:s                                           
 xi17.xi23.net56  70:mm7:d         70:mm2:s                                           
 xi17.xi19.net54  71:mm2:d         71:mm1:s                                           
 xi17.xi19.net55  71:mm1:d         71:mm0:s                                           
 xi17.xi19.net56  71:mm7:d         71:mm2:s                                           
 xi17.xi18.net54  72:mm2:d         72:mm1:s                                           
 xi17.xi18.net55  72:mm1:d         72:mm0:s                                           
 xi17.xi18.net56  72:mm7:d         72:mm2:s                                           
 xi17.xi17.net54  73:mm2:d         73:mm1:s                                           
 xi17.xi17.net55  73:mm1:d         73:mm0:s                                           
 xi17.xi17.net56  73:mm7:d         73:mm2:s                                           
 xi17.xi16.net54  74:mm2:d         74:mm1:s                                           
 xi17.xi16.net55  74:mm1:d         74:mm0:s                                           
 xi17.xi16.net56  74:mm7:d         74:mm2:s                                           
 **info** set option symb=1 internally to help for convergence.
 *****************************************************************
 ******  option summary
 ******
 runlvl  = 3         bypass  = 2         
  Opening plot unit= 15
 file=project_circuit.pa0

 **info** dc convergence successful at Newton-Raphson method 
1****** HSPICE -- I-2013.12-SP1 64-BIT (Feb 25 2014) RHEL64 ******              
 ******  
 

  ******  operating point information tnom=  25.000 temp=  25.000 *****
 ***** operating point status is voltage   simulation time is     0.     
     node    =voltage       node    =voltage       node    =voltage

 + 0:a0      =   0.       0:a1      =   1.1000   0:a10     =   0.     
 + 0:a11     =   0.       0:a12     =   0.       0:a13     =   0.     
 + 0:a14     =   0.       0:a15     =   1.1000   0:a2      =   1.1000 
 + 0:a3      =   1.1000   0:a4      =   1.1000   0:a5      =   1.1000 
 + 0:a6      =   1.1000   0:a7      =   1.1000   0:a8      =   0.     
 + 0:a9      =   0.       0:c0      =   1.1000   0:c1      =   1.1000 
 + 0:c10     =   1.1000   0:c11     =   1.1000   0:c12     =   1.1000 
 + 0:c13     =   1.1000   0:c14     =   0.       0:c15     =   1.1000 
 + 0:c2      =   1.1000   0:c3      =   1.1000   0:c4      =   1.1000 
 + 0:c5      =   1.1000   0:c6      =   1.1000   0:c7      =   1.1000 
 + 0:c8      =   1.1000   0:c9      =   1.1000   0:cout    = 107.4614n
 + 0:net41   =   1.1000   0:net42   =   1.1000   0:net43   =   1.1000 
 + 0:net44   =   1.1000   0:net45   =   1.1000   0:net46   =   1.1000 
 + 0:net47   =   1.1000   0:net48   =   1.1000   0:net49   =   1.1000 
 + 0:net50   =   1.1000   0:net51   =   1.1000   0:net52   =   1.1000 
 + 0:net53   =   1.1000   0:net54   =   1.1000   0:net55   =   1.1000 
 + 0:net56   =   1.1000   0:out     = 490.8839n  0:s0      =   1.1000 
 + 0:s1      =   1.1000   0:s2      =   1.1000   0:s3      =   1.1000 
 + 0:vdd     =   1.1000   0:vss     =   0.       0:y0      =  92.5306n
 + 0:y1      =  92.5306n  0:y10     =  92.5306n  0:y11     =  92.5306n
 + 0:y12     =  92.5306n  0:y13     =  92.5306n  0:y14     =  92.5306n
 + 0:y15     =  92.5306n  0:y2      =  92.5306n  0:y3      =  92.5306n
 + 0:y4      =  92.5306n  0:y5      =  92.5306n  0:y6      =  92.5306n
 + 0:y7      =  92.5306n  0:y8      =  92.5306n  0:y9      =  92.5306n
 + 1:net013  = 108.5283n  1:net014  =   1.1000   1:net015  =   1.1000 
 + 1:net016  =   1.1000   1:net017  = 141.9947n  1:net022  =   1.1000 
 + 1:net029  = 245.9057n  1:net030  = 142.4990n  1:net031  =   1.1000 
 + 1:net032  = 245.9056n  1:net13   = 245.9057n  1:net16   = 245.9056n
 + 1:net3    = 245.9057n  1:net8    = 245.9056n  2:net7    =  54.1460m
 + 3:net7    =  54.1460m  4:net7    =  54.1460m  5:net7    =  54.1460m
 + 6:net7    =  54.1460m  7:net7    =  54.1460m  8:net7    =  54.1460m
 + 9:net7    = 859.6796m 10:net7    = 859.6796m 11:net7    = 859.6796m
 +12:net7    = 859.6796m 13:net7    = 859.6796m 14:net7    = 859.6796m
 +15:net7    =  54.1460m 16:net7    = 859.6796m 17:net7    = 859.6796m
 +18:net1    =   1.1000  18:net100  =   1.1000  18:net104  =   1.1000 
 +18:net106  =   1.1000  18:net107  =   1.1000  18:net2    =   1.1000 
 +18:net3    =   1.1000  18:net4    =   1.1000  18:net5    =   1.1000 
 +18:net6    =   1.1000  18:net7    =   1.1000  18:net8    =   1.1000 
 +18:net83   =   1.1000  18:net90   =   1.1000  18:net91   =   1.1000 
 +18:net92   =   1.1000  18:net93   =   1.1000  18:net97   =   1.1000 
 +18:net98   =   1.1000  18:net99   =   1.1000  18:temp1   = 541.0298n
 +18:temp2   = 541.0298n 18:temp3   = 541.0298n 18:temp4   = 541.0298n
 +18:~s0     = 568.6523n 18:~s1     = 568.6523n 18:~s2     = 922.7235n
 +18:~s3     = 922.7235n 35:net7    =  97.0771n 36:net7    = 148.7805n
 +37:net7    =  37.1635n 38:net7    = 148.7805n 39:net7    = 860.9031m
 +40:net7    = 148.7805n 41:net7    = 148.7804n 42:net7    = 148.7805n
 +43:net7    = 148.7804n 44:net7    =  96.8644n 45:net4    =   1.1000 
 +46:net4    = 233.2164m 47:net4    = 233.5483m 48:net4    =   1.1000 
 +49:net4    =   1.1000  50:net8    =  71.4193m 50:net9    =  17.6222m
 +51:net8    = 126.2303n 51:net9    =  88.9936n 52:net8    = 345.3499m
 +52:net9    = 345.3499m 53:net8    =  54.5895m 53:net9    =  27.4250n
 +54:net8    =  71.3068m 54:net9    =  17.6016m 55:net8    =  71.3068m
 +55:net9    =  17.6016m 56:net8    = 126.2024n 56:net9    =  88.9740n
 +57:net8    = 344.5738m 57:net9    = 344.5738m 58:net8    =  54.5500m
 +58:net9    =  27.4186n 59:net8    = 126.2024n 59:net9    =  88.9740n
 +60:net8    = 344.5738m 60:net9    = 344.5738m 61:net8    =  54.5500m
 +61:net9    =  27.4186n 62:net8    =  71.3068m 62:net9    =  17.6016m
 +63:net8    = 126.2024n 63:net9    =  88.9740n 64:net8    = 344.5738m
 +64:net9    = 344.5738m 65:net8    =  54.5500m 65:net9    =  27.4186n
 +66:net8    = 126.2024n 66:net9    =  88.9740n 67:net8    = 344.5738m
 +67:net9    = 344.5738m 68:net8    =  54.5500m 68:net9    =  27.4186n
 +69:net8    =  71.3068m 69:net9    =  17.6016m 70:net54   = 348.9625n
 +70:net55   = 445.8033n 70:net56   = 200.3614n 71:net54   = 374.0237n
 +71:net55   = 483.4039n 71:net56   = 212.8890n 72:net54   = 374.0237n
 +72:net55   = 483.4039n 72:net56   = 212.8890n 73:net54   = 374.0237n
 +73:net55   = 483.4039n 73:net56   = 212.8890n 74:net54   = 374.0237n
 +74:net55   = 483.4039n 74:net56   = 212.8890n


          ***** job concluded
1****** HSPICE -- I-2013.12-SP1 64-BIT (Feb 25 2014) RHEL64 ******              
 ******  
 

  ******  job statistics summary tnom=  25.000 temp=  25.000 *****
  
  
 ******  Machine Information  ******
 CPU:
 model name	: Intel(R) Xeon(R) CPU           E5530  @ 2.40GHz
 cpu MHz	: 2394.067
  
 OS:
 Linux version 2.6.32-358.el6.x86_64 (mockbuild@c6b8.bsys.dev.centos.org) (gcc version 4.4.7 20120313 (Red Hat 4.4.7-3) (GCC) ) #1 SMP Fri Feb 22 00:31:26 UTC 2013


  ******  HSPICE Threads Information  ******

  Command Line Threads Count :     1
  Available CPU Count        :     8
  Actual Threads Count       :     1


  ******  Circuit Statistics  ******
  # nodes       =    1497 # elements   =     363
  # resistors   =       0 # capacitors =       1 # inductors   =       0
  # mutual_inds =       0 # vccs       =       0 # vcvs        =       0
  # cccs        =       0 # ccvs       =       0 # volt_srcs   =      38
  # curr_srcs   =       0 # diodes     =       0 # bjts        =       0
  # jfets       =       0 # mosfets    =     324 # U elements  =       0
  # T elements  =       0 # W elements =       0 # B elements  =       0
  # S elements  =       0 # P elements =       0 # va device   =       0
  # vector_srcs =       0 # N elements =       0


  ******  Runtime Statistics (seconds)  ******

  analysis           time    # points   tot. iter  conv.iter
  op point           0.05           1          26
  transient          2.69        2001        2548         813 rev=        13
  readin             0.02
  errchk             0.12
  setup              0.01
  output             0.00


           peak memory used        172.34 megabytes
           total cpu time            2.90 seconds
           total elapsed time       24.38 seconds
           job started at     17:56:17 11/18/2024
           job ended   at     17:56:41 11/18/2024


 lic: Release hspice token(s) 
 lic: total license checkout elapse time:       21.48(s)
